CRYSTAL
PRIMVEC
13.4666559 0.0762498 -7.1182283 
-11.8308564 6.4333109 -7.1182282 
0.0191610 0.0762498 15.2321905 
CONVVEC
13.4666559 0.0762498 -7.1182283 
-11.8308564 6.4333109 -7.1182282 
0.0191610 0.0762498 15.2321905 
PRIMCOORD
54 1
 1  -6.057462671  4.472022403 -3.992747239 
 1  -0.045922071  1.043131349  8.437134673 
 1   7.703791221  0.853562722 -3.481476760 
 1   7.712423138  2.113788149  4.988481218 
 1   1.700882538  5.542679203 -7.441400694 
 1  -6.048830754  5.732247831  4.477210739 
 6  -0.915812630  5.584990029 -7.170190150 
 6  -4.723020736  4.510182186  6.398849909 
 6   8.594361551  1.666165865  2.549582009 
 6   2.570773097  1.000820523  8.165924129 
 6   6.377981203  2.075628366 -5.403115930 
 6  -6.939401084  4.919644687 -1.553848031 
 6  -5.976738562  5.777384274 -2.287956757 
 6   1.715692806  2.222054313  8.120331106 
 6   6.959632918  2.739416903 -4.208725294 
 6   7.631699029  0.808426278  3.283690735 
 6  -0.060732339  4.363756239 -7.124597127 
 6  -5.304672451  3.846393649  5.204459273 
 6  -5.627852061  5.382595142 -3.588035094 
 6   0.336196475  2.048893719  8.293868987 
 6   7.642362937  1.923001476 -3.291492416 
 6   7.282812528  1.203215410  4.583769072 
 6   1.318763992  4.536916833 -7.298135008 
 6  -5.987402470  4.662809077  4.287226395 
 6  -4.746205225  6.114380462 -4.387746924 
 6  -0.571355875  3.120675267  8.289357997 
 6   8.248856736  2.429848163 -2.137949164 
 6   6.401165692  0.471430090  5.383480903 
 6   2.226316342  3.465135285 -7.293624018 
 6  -6.593896269  4.155962389  3.133683143 
 8  -4.366357862  2.697623204 10.214972285 
 8  11.418337678  0.223543336 -0.270780919 
 8  -4.888750867  5.687265590 -8.642649343 
 8   6.021318329  3.888187348 -9.219238307 
 8  -9.763377211  6.362267217  1.266514897 
 8   6.543711334  0.898544962  9.638383322 
 8  -2.188435223  5.454444708 -6.968918299 
 8  -4.050345730  3.782505253  7.237911237 
 8   8.897943491  1.345020189  1.330935589 
 8   3.843395690  1.131365844  7.964652278 
 8   5.705306197  2.803305300 -6.242177259 
 8  -7.242983024  5.240790363 -0.335201610 
 8  -4.451541070  5.648926925 -5.629659915 
 8  -1.892774712  2.858975358  8.448264492 
 8   8.875181220  1.563515565 -1.295868042 
 8   6.106501537  0.936883627  6.625393893 
 8   3.547735179  3.726835194 -7.452530514 
 8  -7.220220753  5.022294987  2.291602021 
12  -3.382425637  4.002666096 -6.107785329 
12  -3.119198196  1.926701163  7.155802639 
12   8.031844171  0.160047925 -0.127335262 
12   5.037386104  2.583144457  7.103519308 
12   4.774158663  4.659109390 -6.160068660 
12  -6.376883704  6.425762628  1.123069241 
